REMARK  Name = C:\Users\Administrator\Desktop\ions_dock\ligand\Ag.pdb
REMARK  0 active torsions:
REMARK  status: ('A' for Active; 'I' for Inactive)
REMARK                            x       y       z     vdW  Elec       q    Type
REMARK                         _______ _______ _______ _____ _____    ______ ____
ROOT
ATOM      1 AG   UNL     1     -16.441   2.818   0.000  0.00  1.00    +1.000 Ag
ENDROOT
TORSDOF 0
