REMARK  Name = C:\Users\Administrator\Desktop\ions_dock\ligand\Zn.pdb
REMARK  0 active torsions:
REMARK  status: ('A' for Active; 'I' for Inactive)
REMARK                            x       y       z     vdW  Elec       q    Type
REMARK                         _______ _______ _______ _____ _____    ______ ____
ROOT
ATOM      1 ZN   UNL     1      -7.960   1.942   0.000  0.00  2.00    +2.000 Zn
ENDROOT
TORSDOF 0
