REMARK  Name = C:\Users\Administrator\Desktop\ions_dock\ligand\Cd.pdb
REMARK  0 active torsions:
REMARK  status: ('A' for Active; 'I' for Inactive)
REMARK                            x       y       z     vdW  Elec       q    Type
REMARK                         _______ _______ _______ _____ _____    ______ ____
ROOT
ATOM      1 CD   UNL     1     -11.571   2.325   0.000  0.00  2.00    +2.000 Cd
ENDROOT
TORSDOF 0
